&NUMERICS
time_flux = 3  		! length of flux corrections run [yrs]
time_ctrl = 50 		! length of control run [yrs]
time_scnr = 30  	! length of scenario run [yrs]
/
&PHYSICS
 log_exp = 931     ! sensitivity run as set above
 log_control = 0     ! control run process switch
/
